*Material, name=DP1000
*USER MATERIAL,CONSTANTS=832
** E,NU,ceta,eta0,cthetas,cthetat,cthetac,m
 210000,0.3,0.0,0.33333,1.0,1.0,1.0,0.0
** D1,D2,D3,D4,D5,D6,Gf,Dcrit
 0.0001,0.0,0.0001,0.0,0.0001,0.0,420,1.0
** cT1, cT2, cT3, eta2, Cp, T0, cE1, cE2
 1.0,0.0,0.0,0.9,460000000.0,298.15,0.000000000000001,1.0
** cE3, strrInc, sigdmg, Cutoff, E1, E2, E3, E4
 0.0,50000.0,5000.0,-0.33333,2.12,1.41,2.06,1.32
** Cc1, Cc2, Cc3, Cc4,zero,zero,zero,zero 
 15.0,0.0,15.0,0.0,0.0,0.0,0.0,0.0
** FLOW CURVE
  377.306, 0.00000,  514.636, 0.00011,  573.852, 0.00020,  610.175, 0.00030
  639.817, 0.00040,  661.357, 0.00050,  677.303, 0.00060,  694.840, 0.00070
  705.045, 0.00080,  718.046, 0.00090,  727.558, 0.00100,  784.839, 0.00200
  820.567, 0.00300,  844.964, 0.00400,  864.705, 0.00500,  917.043, 0.01000
  924.392, 0.01100,  931.174, 0.01200,  937.459, 0.01300,  943.306, 0.01400
  948.763, 0.01500,  953.871, 0.01600,  958.663, 0.01700,  963.169, 0.01800
  967.416, 0.01900,  971.424, 0.02000,  975.215, 0.02100,  978.806, 0.02200
  982.213, 0.02300,  985.450, 0.02400,  988.530, 0.02500,  991.464, 0.02600
  994.263, 0.02700,  996.937, 0.02800,  999.493, 0.02900, 1001.941, 0.03000
 1004.287, 0.03100, 1006.539, 0.03200, 1008.701, 0.03300, 1010.780, 0.03400
 1012.782, 0.03500, 1014.711, 0.03600, 1016.571, 0.03700, 1018.366, 0.03800
 1020.101, 0.03900, 1021.779, 0.04000, 1023.403, 0.04100, 1024.977, 0.04200
 1026.502, 0.04300, 1027.983, 0.04400, 1029.420, 0.04500, 1030.756, 0.04600
 1031.907, 0.04700, 1033.020, 0.04800, 1034.096, 0.04900, 1035.137, 0.05000
 1036.146, 0.05100, 1037.124, 0.05200, 1038.074, 0.05300, 1038.996, 0.05400
 1039.892, 0.05500, 1040.763, 0.05600, 1041.612, 0.05700, 1042.438, 0.05800
 1043.244, 0.05900, 1044.029, 0.06000, 1044.796, 0.06100, 1045.546, 0.06200
 1046.278, 0.06300, 1046.994, 0.06400, 1047.694, 0.06500, 1048.380, 0.06600
 1049.052, 0.06700, 1049.711, 0.06800, 1050.357, 0.06900, 1050.990, 0.07000
 1051.612, 0.07100, 1052.223, 0.07200, 1052.823, 0.07300, 1053.413, 0.07400
** ... 79 like lines cut
*Density
 7.85e-09,
*DEPVAR, delete=28
 39