1

   Abaqus 2020                                  Date 01-Aug-2021   Time 20:57:57
   For use by Supplied by Team-SolidSQUAD under license from Dassault Systemes or its subsidiary.



                         The Abaqus Software is a product of:

                           Dassault Systemes SIMULIA Corp.
                           1301 Atwood Avenue, Suite 101W
                              Johnston, RI 02919, USA
 


                   The Abaqus Software is available only under license
                   from Dassault Systemes or its subsidiary and may be
                   used or reproduced only in accordance with the terms
                   of such license.
 
                          On machine Jalaj 
                          you are authorized to run
                          Abaqus/Explicit until 31-Dec-2055

                          Your site id is:  


 
                    For assistance or any other information you may
                    obtain contact information for your local office
                    from the world wide web at:

                      http://www.3ds.com/products/simulia/locations/

 
                * * * * * * * * * * * * * * * * * * * * * * * * * * * * * * 
                *                                                         * 
                *                   *****************                     * 
                *                   *  N O T I C E  *                     * 
                *                   *****************                     * 
                *                                                         * 
                *                                                         * 
                *                       Abaqus 2020                       * 
                *                                                         * 
                *          BUILD ID: 2019_09_13-23.19.31 163176           * 
                *                                                         * 
                *                                                         * 
                *  Please make sure you are using                         * 
                *  release Abaqus 2020 manuals                            * 
                *  plus the notes accompanying this release.              * 
                *                                                         * 
                *                                                         * 
                *                                                         * 
                *                                                         * 
                * * * * * * * * * * * * * * * * * * * * * * * * * * * * * * 


 



     PROCESSING PART, INSTANCE, AND ASSEMBLY INFORMATION
   *******************************************************


     END PROCESSING PART, INSTANCE, AND ASSEMBLY INFORMATION
   ***********************************************************




     OPTIONS BEING PROCESSED
   ***************************


  *Heading
          Uniaxial tension                                                                                                                                                                                                                                                
  *Node
  *Element, type=C3D8, ELSET=ESET_ALL
  *Nset, nset=Top_nodes
  *Nset, nset=Bot_nodes
  *Nset, nset=Left_nodes
  *Nset, nset=Right_nodes
  *Material, name=Steel
  *Density
  *elastic
  *plastic
  *Solid Section, elset=ESET_ALL, controls=EC-1, material=Steel
  *Section Controls, name=EC-1,HOURGLASS=ENHANCED,kINEMATICSPLIT=ORTHOGONAL,LENGTHRATIO=0.1, DISTORTION CONTROL=YES,ELEMENT DELETION=NO

 ***WARNING: THE PARAMETER HOURGLASS ON THE *SECTION CONTROLS OPTION IS 
             RELEVANT FOR SOLID, MEMBRANE, AND SHELL ELEMENTS WITH REDUCED 
             INTEGRATION WHEREVER APPLICABLE. THIS WARNING CAN BE IGNORED IF 
             THE FEATURE IS APPLIED TO THESE ELEMENT TYPES ONLY.

 ***WARNING: THE PARAMETER DISTORTION CONTROL ON THE *SECTION CONTROLS OPTION 
             IS RELEVANT FOR SOLID ELEMENTS WHEREVER APPLICABLE. THIS WARNING 
             CAN BE IGNORED IF THE FEATURE IS APPLIED TO SOLID ELEMENTS ONLY.
  *Solid Section, elset=ESET_ALL, controls=EC-1, material=Steel
  *Boundary
  *Boundary, TYPE=DISPLACEMENT, amplitude=Amp-1
  *Solid Section, elset=ESET_ALL, controls=EC-1, material=Steel
  *Element Output, directions=YES
  *Amplitude, name=Amp-1
  *Output, field, TIME POINTS = OUTPUT_TIMES
  *Output, history, variable=PRESELECT
  *TIME POINTS, NAME=OUTPUT_TIMES, GENERATE

 ***WARNING: NUMBER OF TIME POINTS GENERATED BETWEEN 0.0000 AND 100.00 EXCEEDS 
             1000.0. THIS MAY PRODUCE A POTENTIALLY VERY LARGE ODB AND THE 
             ANALYSIS PERFORMANCE MAY BE AFFECTED. REDUCING THE NUMBER OF TIME 
             POINTS IS RECOMMENDED.
  *Step, name=Step-1, nlgeom=YES
  *Step, name=Step-1, nlgeom=YES
  *Dynamic, Explicit
  *Variable Mass Scaling, dt=1e-05, type=below min, frequency=2000
  *Boundary
  *Boundary, TYPE=DISPLACEMENT, amplitude=Amp-1
  *Output, field, TIME POINTS = OUTPUT_TIMES
  *Node Output
  *Element Output, directions=YES
  *Output, history, variable=PRESELECT
  *End Step
  *Step, name=Step-1, nlgeom=YES
  *Dynamic, Explicit
  *Boundary

 ***WARNING: THE OPTION *BOUNDARY,TYPE=DISPLACEMENT HAS BEEN USED; CHECK STATUS 
             FILE BETWEEN STEPS FOR WARNINGS ON ANY JUMPS PRESCRIBED ACROSS THE 
             STEPS IN DISPLACEMENT VALUES OF TRANSLATIONAL DOF. FOR ROTATIONAL 
             DOF MAKE SURE THAT THERE ARE NO SUCH JUMPS. ALL JUMPS IN 
             DISPLACEMENTS ACROSS STEPS ARE IGNORED
  *Boundary, TYPE=DISPLACEMENT, amplitude=Amp-1
  *End Step



                            P R O B L E M   S I Z E


          NUMBER OF ELEMENTS IS                                     1
          NUMBER OF NODES IS                                        8
          NUMBER OF NODES DEFINED BY THE USER                       8
          TOTAL NUMBER OF VARIABLES IN THE MODEL                   24
          (DEGREES OF FREEDOM PLUS MAX NO. OF ANY LAGRANGE MULTIPLIER
           VARIABLES. INCLUDE *PRINT,SOLVE=YES TO GET THE ACTUAL NUMBER.)



                              END OF USER INPUT PROCESSING



     JOB TIME SUMMARY
       USER TIME (SEC)      =  0.10000    
       SYSTEM TIME (SEC)    =  0.10000    
       TOTAL CPU TIME (SEC) =  0.20000    
       WALLCLOCK TIME (SEC) =          1
