1

   Abaqus 2020                                  Date 01-Aug-2021   Time 14:56:33
   For use by Supplied by Team-SolidSQUAD under license from Dassault Systemes or its subsidiary.



                         The Abaqus Software is a product of:

                           Dassault Systemes SIMULIA Corp.
                           1301 Atwood Avenue, Suite 101W
                              Johnston, RI 02919, USA
 


                   The Abaqus Software is available only under license
                   from Dassault Systemes or its subsidiary and may be
                   used or reproduced only in accordance with the terms
                   of such license.
 
                          On machine Jalaj 
                          you are authorized to run
                          Abaqus/Explicit until 31-Dec-2055

                          Your site id is:  


 
                    For assistance or any other information you may
                    obtain contact information for your local office
                    from the world wide web at:

                      http://www.3ds.com/products/simulia/locations/

 
                * * * * * * * * * * * * * * * * * * * * * * * * * * * * * * 
                *                                                         * 
                *                   *****************                     * 
                *                   *  N O T I C E  *                     * 
                *                   *****************                     * 
                *                                                         * 
                *                                                         * 
                *                       Abaqus 2020                       * 
                *                                                         * 
                *          BUILD ID: 2019_09_13-23.19.31 163176           * 
                *                                                         * 
                *                                                         * 
                *  Please make sure you are using                         * 
                *  release Abaqus 2020 manuals                            * 
                *  plus the notes accompanying this release.              * 
                *                                                         * 
                *                                                         * 
                *                                                         * 
                *                                                         * 
                * * * * * * * * * * * * * * * * * * * * * * * * * * * * * * 


 



     PROCESSING PART, INSTANCE, AND ASSEMBLY INFORMATION
   *******************************************************


     END PROCESSING PART, INSTANCE, AND ASSEMBLY INFORMATION
   ***********************************************************




     OPTIONS BEING PROCESSED
   ***************************


  *Heading
  *Node
  *Element, type=CPS4R
  *Nset, nset=ASSEMBLY_QUARTER_PLATE-1_PLATE
  *Elset, elset=ASSEMBLY_QUARTER_PLATE-1_PLATE
  *Nset, nset=ASSEMBLY_BOTTOM_FACE
  *Nset, nset=ASSEMBLY_BOTTOM_FACE_1
  *Nset, nset=ASSEMBLY_LEFT_FACE
  *Nset, nset=ASSEMBLY_RIGHT_FACE
  *Nset, nset=ASSEMBLY_RIGHT_FACE_DISP
  *Elset, elset=ASSEMBLY_BOTTOM_FACE
  *Elset, elset=ASSEMBLY_BOTTOM_FACE_1
  *Elset, elset=ASSEMBLY_LEFT_FACE
  *Elset, elset=ASSEMBLY_RIGHT_FACE
  *Elset, elset=ASSEMBLY_RIGHT_FACE_DISP
  *Elset, elset=ASSEMBLY__RIGHT_FACE_S1
  *Elset, elset=ASSEMBLY__RIGHT_FACE_S3
  *Elset, elset=ASSEMBLY__RIGHT_FACE_S4
  *Elset, elset=ASSEMBLY__RIGHT_S1
  *Elset, elset=ASSEMBLY__RIGHT_S3
  *Elset, elset=ASSEMBLY__RIGHT_S4
  *material, name=STEEL
  *density
  *elastic
  *plastic
  *material, name=STEEL_VUMAT
  *density
  *depvar
  *usermaterial, constants=5
  *solidsection, elset=ASSEMBLY_QUARTER_PLATE-1_PLATE, material=STEEL
  *solidsection, elset=ASSEMBLY_QUARTER_PLATE-1_PLATE, material=STEEL
  *surface, type=ELEMENT, name=ASSEMBLY_RIGHT
  *surface, type=ELEMENT, name=ASSEMBLY_RIGHT_FACE
  *surface, type=ELEMENT, name=ASSEMBLY_RIGHT
  *surface, type=ELEMENT, name=ASSEMBLY_RIGHT_FACE
  *boundary
  *boundary, amplitude=DISP_AMPLITUDE
  *boundary
  *solidsection, elset=ASSEMBLY_QUARTER_PLATE-1_PLATE, material=STEEL
  *elementoutput, directions=YES
  *amplitude, name=DISP_AMPLITUDE
  *output, field, variable=PRESELECT
  *output, field, timepoints=TENSION_OUTPUT
  *output, history, variable=PRESELECT
  *timepoints, name=PLATE_2S, generate
  *timepoints, name=TIMEPOINTS-3, generate
  *timepoints, name=TENSION_OUTPUT, generate
  *Step, name=Load_step, nlgeom=YES
  *Step, name=Load_step, nlgeom=YES
  *dynamic, explicit
  *boundary
  *boundary, amplitude=DISP_AMPLITUDE
  *boundary
  *dsload
  *output, field, variable=PRESELECT
  *output, field, timepoints=TENSION_OUTPUT
  *nodeoutput
  *elementoutput, directions=YES
  *output, history, variable=PRESELECT
  *endstep

 ***WARNING: OUTPUT REQUEST E IS NOT AVAILABLE IN A NONLINEAR STEP -- LE (LOG 
             STRAIN) WILL BE OUTPUT INSTEAD.

 ***WARNING: OUTPUT REQUEST SVAVG IS NOT AVAILABLE FOR ELEMENT TYPE CPS4R
  *surface, type=ELEMENT, name=ASSEMBLY_RIGHT
  *surface, type=ELEMENT, name=ASSEMBLY_RIGHT_FACE
  *Step, name=Load_step, nlgeom=YES
  *dynamic, explicit
  *boundary

 ***WARNING: THE OPTION *BOUNDARY,TYPE=DISPLACEMENT HAS BEEN USED; CHECK STATUS 
             FILE BETWEEN STEPS FOR WARNINGS ON ANY JUMPS PRESCRIBED ACROSS THE 
             STEPS IN DISPLACEMENT VALUES OF TRANSLATIONAL DOF. FOR ROTATIONAL 
             DOF MAKE SURE THAT THERE ARE NO SUCH JUMPS. ALL JUMPS IN 
             DISPLACEMENTS ACROSS STEPS ARE IGNORED
  *boundary, amplitude=DISP_AMPLITUDE
  *boundary
  *endstep

 ***NOTE: Boundary conditions are specified on inactive dof of 30 nodes. The 
          nodes have been identified in node set WarnNodeBCInactiveDof.

     - (RAMP) OR (STEP) - INDICATE USE OF DEFAULT AMPLITUDES ASSOCIATED WITH THE STEP



                            P R O B L E M   S I Z E


          NUMBER OF ELEMENTS IS                                   247
          NUMBER OF NODES IS                                      277
          NUMBER OF NODES DEFINED BY THE USER                     277
          TOTAL NUMBER OF VARIABLES IN THE MODEL                  554
          (DEGREES OF FREEDOM PLUS MAX NO. OF ANY LAGRANGE MULTIPLIER
           VARIABLES. INCLUDE *PRINT,SOLVE=YES TO GET THE ACTUAL NUMBER.)



                              END OF USER INPUT PROCESSING



     JOB TIME SUMMARY
       USER TIME (SEC)      =   0.0000    
       SYSTEM TIME (SEC)    =   0.0000    
       TOTAL CPU TIME (SEC) =   0.0000    
       WALLCLOCK TIME (SEC) =          0
