*Heading
Uniaxial tension
*Node
      1,           1.,           1.,           1.
      2,           1.,           0.,           1.
      3,           1.,           1.,           0.
      4,           1.,           0.,           0.
      5,           0.,           1.,           1.
      6,           0.,           0.,           1.
      7,           0.,           1.,           0.
      8,           0.,           0.,           0.
*Element, type=C3D8, ELSET=ESET_ALL
1, 5, 6, 8, 7, 1, 2, 4, 3
** Section: Section-1
*Solid Section, elset=ESET_ALL, controls=EC-1, material=Steel
1.0
**  
*Nset, nset=Top_nodes
1,3,7,5
*Nset, nset=Bot_nodes
8,6,2,4
*Nset, nset=Left_nodes
8,6,5,7
*Nset, nset=Right_nodes
8,4,3,7
** 
** ELEMENT CONTROLS
** 
*Section Controls, name=EC-1, hourglass=ENHANCED, kinematicsplit=ORTHOGONAL, distortion control=yes, length ratio=0.1
1., 1., 1.
*Amplitude, name=Amp-1
             0.,              0.,             100.,             0.15
** 
** MATERIALS
** 
*Material, name=Steel
*USER MATERIAL,CONSTANTS=16
** E, nu, hard, syield0, log_PEEQ_min, log_PEEQ_max, log_strain_rate_min, log_strain_rate_max
 200E3, 0.3, 250.0, 200.0, -60205E-5, -9.0 , -1.0 , -4.0
** stress_min, stress_max, init_temp_min, init_temp_max, delta_temp_min, delta_temp_max, BLANK, BLANK
 40.0 , 570.0 , 290.0 , 700.0 , 0.0, 12.2, 0.0, 0.0
*Density
7.85e-09,
*Depvar
4,
*INITIAL CONDITIONS, TYPE=SOLUTION
ESET_ALL, 2E-8, 0.1, 0.0, 293.0
**ESET_ALL,0.00
** ----------------------------------------------------------------
*TIME POINTS, NAME=OUTPUT_TIMES, GENERATE
0.0,100.0, 1
** 
** STEP: Step-1
** 
*Step, name=Step-1, nlgeom=YES
*Dynamic, Explicit
, 100.
*Bulk Viscosity
0.06, 1.2
** Mass Scaling: Semi-Automatic
**               Whole Model
*Variable Mass Scaling, dt=5e-05, type=below min, frequency=2000
** 
** BOUNDARY CONDITIONS
** 
** Name: BC-1 Type: Displacement/Rotation
*Boundary
Bot_nodes,2,2,0
Left_nodes,1,1,0
Right_nodes,3,3,0
** Name: BC-4 Type: Displacement/Rotation
*Boundary, TYPE=DISPLACEMENT, amplitude=Amp-1
Top_nodes, 2, 2, 1
** 
** OUTPUT REQUESTS
** 
*Restart, write, number interval=1, time marks=NO
** 
** FIELD OUTPUT: F-Output-1
** 
*Output, field, TIME POINTS = OUTPUT_TIMES
*Node Output
RF, U
*Element Output, directions=YES
LE, S, SDV
** 
** HISTORY OUTPUT: H-Output-1
** 
*Output, history, variable=PRESELECT
*End Step
